output/2_TAP2_1/Cargas_MT_DU05_2_TAP2_1.dss
New "Load.MT_8444_M1" bus1="84441.1.2.3.4" phases=3 conn=delta model=2 kv=13.8 kw = 1939.7063561739917 pf=0.92 status=variable vmaxpu=1.5 vminpu=0.93 daily="1_DU" 
New "Load.MT_8444_M2" bus1="84441.1.2.3.4" phases=3 conn=delta model=3 kv=13.8 kw = 1939.7063561739917 pf=0.92 status=variable vmaxpu=1.5 vminpu=0.93 daily="1_DU"
 
New "Load.MT_8266_M1" bus1="82661.1.2.3.4" phases=3 conn=delta model=2 kv=13.8 kw = 5687.641248805617 pf=0.92 status=variable vmaxpu=1.5 vminpu=0.93 daily="5_DU" 
New "Load.MT_8266_M2" bus1="82661.1.2.3.4" phases=3 conn=delta model=3 kv=13.8 kw = 5687.641248805617 pf=0.92 status=variable vmaxpu=1.5 vminpu=0.93 daily="5_DU"
 
New "Load.MT_8092_M1" bus1="80921.1.2.3.4" phases=3 conn=delta model=2 kv=13.8 kw = 7379.615671645608 pf=0.92 status=variable vmaxpu=1.5 vminpu=0.93 daily="6_DU" 
New "Load.MT_8092_M2" bus1="80921.1.2.3.4" phases=3 conn=delta model=3 kv=13.8 kw = 7379.615671645608 pf=0.92 status=variable vmaxpu=1.5 vminpu=0.93 daily="6_DU"
 
New "Load.MT_7769_M1" bus1="77691.1.2.3.4" phases=3 conn=delta model=2 kv=13.8 kw = 12921.428495743668 pf=0.92 status=variable vmaxpu=1.5 vminpu=0.93 daily="1_DU" 
New "Load.MT_7769_M2" bus1="77691.1.2.3.4" phases=3 conn=delta model=3 kv=13.8 kw = 12921.428495743668 pf=0.92 status=variable vmaxpu=1.5 vminpu=0.93 daily="1_DU"
 
New "Load.MT_7632_M1" bus1="76321.1.2.3.4" phases=3 conn=delta model=2 kv=13.8 kw = 24944.817159853235 pf=0.92 status=variable vmaxpu=1.5 vminpu=0.93 daily="6_DU" 
New "Load.MT_7632_M2" bus1="76321.1.2.3.4" phases=3 conn=delta model=3 kv=13.8 kw = 24944.817159853235 pf=0.92 status=variable vmaxpu=1.5 vminpu=0.93 daily="6_DU"
 
New "Load.MT_7595_M1" bus1="75951.1.2.3.4" phases=3 conn=delta model=2 kv=13.8 kw = 12216.120780147017 pf=0.92 status=variable vmaxpu=1.5 vminpu=0.93 daily="3_DU" 
New "Load.MT_7595_M2" bus1="75951.1.2.3.4" phases=3 conn=delta model=3 kv=13.8 kw = 12216.120780147017 pf=0.92 status=variable vmaxpu=1.5 vminpu=0.93 daily="3_DU"
 
New "Load.MT_7322_M1" bus1="73221.1.2.3.4" phases=3 conn=delta model=2 kv=13.8 kw = 114895.27316403943 pf=0.92 status=variable vmaxpu=1.5 vminpu=0.93 daily="1_DU" 
New "Load.MT_7322_M2" bus1="73221.1.2.3.4" phases=3 conn=delta model=3 kv=13.8 kw = 114895.27316403943 pf=0.92 status=variable vmaxpu=1.5 vminpu=0.93 daily="1_DU"
 
New "Load.MT_6803_M1" bus1="68031.1.2.3.4" phases=3 conn=delta model=2 kv=13.8 kw = 120838.73238359822 pf=0.92 status=variable vmaxpu=1.5 vminpu=0.93 daily="1_DU" 
New "Load.MT_6803_M2" bus1="68031.1.2.3.4" phases=3 conn=delta model=3 kv=13.8 kw = 120838.73238359822 pf=0.92 status=variable vmaxpu=1.5 vminpu=0.93 daily="1_DU"
 
New "Load.MT_7250_M1" bus1="72501.1.2.3.4" phases=3 conn=delta model=2 kv=13.8 kw = 641.5951793498589 pf=0.92 status=variable vmaxpu=1.5 vminpu=0.93 daily="1_DU" 
New "Load.MT_7250_M2" bus1="72501.1.2.3.4" phases=3 conn=delta model=3 kv=13.8 kw = 641.5951793498589 pf=0.92 status=variable vmaxpu=1.5 vminpu=0.93 daily="1_DU"
 
New "Load.MT_126_M1" bus1="1261.1.2.3.4" phases=3 conn=delta model=2 kv=13.8 kw = 2548686.641010335 pf=0.92 status=variable vmaxpu=1.5 vminpu=0.93 daily="3_DU" 
New "Load.MT_126_M2" bus1="1261.1.2.3.4" phases=3 conn=delta model=3 kv=13.8 kw = 2548686.641010335 pf=0.92 status=variable vmaxpu=1.5 vminpu=0.93 daily="3_DU"
 
New "Load.MT_1236_M1" bus1="12361.1.2.3.4" phases=3 conn=delta model=2 kv=13.8 kw = 310035.1942372769 pf=0.92 status=variable vmaxpu=1.5 vminpu=0.93 daily="3_DU" 
New "Load.MT_1236_M2" bus1="12361.1.2.3.4" phases=3 conn=delta model=3 kv=13.8 kw = 310035.1942372769 pf=0.92 status=variable vmaxpu=1.5 vminpu=0.93 daily="3_DU"
 
New "Load.MT_1705_M1" bus1="17051.1.2.3.4" phases=3 conn=delta model=2 kv=13.8 kw = 22250.334730933264 pf=0.92 status=variable vmaxpu=1.5 vminpu=0.93 daily="7_DU" 
New "Load.MT_1705_M2" bus1="17051.1.2.3.4" phases=3 conn=delta model=3 kv=13.8 kw = 22250.334730933264 pf=0.92 status=variable vmaxpu=1.5 vminpu=0.93 daily="7_DU"
 
New "Load.MT_461_M1" bus1="4611.1.2.3.4" phases=3 conn=delta model=2 kv=13.8 kw = 14438.378338392558 pf=0.92 status=variable vmaxpu=1.5 vminpu=0.93 daily="1_DU" 
New "Load.MT_461_M2" bus1="4611.1.2.3.4" phases=3 conn=delta model=3 kv=13.8 kw = 14438.378338392558 pf=0.92 status=variable vmaxpu=1.5 vminpu=0.93 daily="1_DU"
 
New "Load.MT_427_M1" bus1="4271.1.2.3.4" phases=3 conn=delta model=2 kv=13.8 kw = 61175.35431010282 pf=0.92 status=variable vmaxpu=1.5 vminpu=0.93 daily="1_DU" 
New "Load.MT_427_M2" bus1="4271.1.2.3.4" phases=3 conn=delta model=3 kv=13.8 kw = 61175.35431010282 pf=0.92 status=variable vmaxpu=1.5 vminpu=0.93 daily="1_DU"
 
